*SPEF "ieee 1481-1999"
*DESIGN "user_project_wrapper"
*DATE "11:11:11 Fri 11 11, 1111"
*VENDOR "OpenRCX"
*PROGRAM "Parallel Extraction"
*VERSION "1.0"
*DESIGN_FLOW "NAME_SCOPE LOCAL" "PIN_CAP NONE"
*DIVIDER /
*DELIMITER :
*BUS_DELIMITER []
*T_UNIT 1 NS
*C_UNIT 1 PF
*R_UNIT 1 OHM
*L_UNIT 1 HENRY

*NAME_MAP
*1 analog_io[0]
*2 analog_io[10]
*3 analog_io[11]
*4 analog_io[12]
*5 analog_io[13]
*6 analog_io[14]
*7 analog_io[15]
*8 analog_io[16]
*9 analog_io[17]
*10 analog_io[18]
*11 analog_io[19]
*12 analog_io[1]
*13 analog_io[20]
*14 analog_io[21]
*15 analog_io[22]
*16 analog_io[23]
*17 analog_io[24]
*18 analog_io[25]
*19 analog_io[26]
*20 analog_io[27]
*21 analog_io[28]
*22 analog_io[2]
*23 analog_io[3]
*24 analog_io[4]
*25 analog_io[5]
*26 analog_io[6]
*27 analog_io[7]
*28 analog_io[8]
*29 analog_io[9]
*30 io_in[0]
*31 io_in[10]
*32 io_in[11]
*33 io_in[12]
*34 io_in[13]
*35 io_in[14]
*36 io_in[15]
*37 io_in[16]
*38 io_in[17]
*39 io_in[18]
*40 io_in[19]
*41 io_in[1]
*42 io_in[20]
*43 io_in[21]
*44 io_in[22]
*45 io_in[23]
*46 io_in[24]
*47 io_in[25]
*48 io_in[26]
*49 io_in[27]
*50 io_in[28]
*51 io_in[29]
*52 io_in[2]
*53 io_in[30]
*54 io_in[31]
*55 io_in[32]
*56 io_in[33]
*57 io_in[34]
*58 io_in[35]
*59 io_in[36]
*60 io_in[37]
*61 io_in[3]
*62 io_in[4]
*63 io_in[5]
*64 io_in[6]
*65 io_in[7]
*66 io_in[8]
*67 io_in[9]
*68 tt_top1\.io_oeb\[0\]
*69 wbs_ack_o
*70 io_oeb[24]
*71 io_oeb[25]
*72 io_oeb[26]
*73 io_oeb[27]
*74 io_oeb[28]
*75 io_oeb[29]
*76 io_oeb[30]
*77 io_oeb[31]
*78 io_out[16]
*79 io_out[17]
*80 io_out[18]
*81 io_out[19]
*82 io_out[20]
*83 io_out[21]
*84 io_out[22]
*85 io_out[23]
*86 io_out[24]
*87 io_out[25]
*88 io_out[26]
*89 io_out[27]
*90 io_out[28]
*91 io_out[29]
*92 io_out[30]
*93 io_out[31]
*94 user_clock2
*95 la_data_in[0]
*96 la_data_in[100]
*97 la_data_in[101]
*98 la_data_in[102]
*99 la_data_in[103]
*100 la_data_in[104]
*101 la_data_in[105]
*102 la_data_in[106]
*103 la_data_in[107]
*104 la_data_in[108]
*105 la_data_in[109]
*106 la_data_in[10]
*107 la_data_in[110]
*108 la_data_in[111]
*109 la_data_in[112]
*110 la_data_in[113]
*111 la_data_in[114]
*112 la_data_in[115]
*113 la_data_in[116]
*114 la_data_in[117]
*115 la_data_in[118]
*116 la_data_in[119]
*117 la_data_in[11]
*118 la_data_in[120]
*119 la_data_in[121]
*120 la_data_in[122]
*121 la_data_in[123]
*122 la_data_in[124]
*123 la_data_in[125]
*124 la_data_in[126]
*125 la_data_in[127]
*126 la_data_in[12]
*127 la_data_in[13]
*128 la_data_in[14]
*129 la_data_in[15]
*130 la_data_in[16]
*131 la_data_in[17]
*132 la_data_in[18]
*133 la_data_in[19]
*134 la_data_in[1]
*135 la_data_in[20]
*136 la_data_in[21]
*137 la_data_in[22]
*138 la_data_in[23]
*139 la_data_in[24]
*140 la_data_in[25]
*141 la_data_in[26]
*142 la_data_in[27]
*143 la_data_in[28]
*144 la_data_in[29]
*145 la_data_in[2]
*146 la_data_in[30]
*147 la_data_in[31]
*148 la_data_in[32]
*149 la_data_in[33]
*150 la_data_in[34]
*151 la_data_in[35]
*152 la_data_in[36]
*153 la_data_in[37]
*154 la_data_in[38]
*155 la_data_in[39]
*156 la_data_in[3]
*157 la_data_in[40]
*158 la_data_in[41]
*159 la_data_in[42]
*160 la_data_in[43]
*161 la_data_in[44]
*162 la_data_in[45]
*163 la_data_in[46]
*164 la_data_in[47]
*165 la_data_in[48]
*166 la_data_in[49]
*167 la_data_in[4]
*168 la_data_in[50]
*169 la_data_in[51]
*170 la_data_in[52]
*171 la_data_in[53]
*172 la_data_in[54]
*173 la_data_in[55]
*174 la_data_in[56]
*175 la_data_in[57]
*176 la_data_in[58]
*177 la_data_in[59]
*178 la_data_in[5]
*179 la_data_in[60]
*180 la_data_in[61]
*181 la_data_in[62]
*182 la_data_in[63]
*183 la_data_in[64]
*184 la_data_in[65]
*185 la_data_in[66]
*186 la_data_in[67]
*187 la_data_in[68]
*188 la_data_in[69]
*189 la_data_in[6]
*190 la_data_in[70]
*191 la_data_in[71]
*192 la_data_in[72]
*193 la_data_in[73]
*194 la_data_in[74]
*195 la_data_in[75]
*196 la_data_in[76]
*197 la_data_in[77]
*198 la_data_in[78]
*199 la_data_in[79]
*200 la_data_in[7]
*201 la_data_in[80]
*202 la_data_in[81]
*203 la_data_in[82]
*204 la_data_in[83]
*205 la_data_in[84]
*206 la_data_in[85]
*207 la_data_in[86]
*208 la_data_in[87]
*209 la_data_in[88]
*210 la_data_in[89]
*211 la_data_in[8]
*212 la_data_in[90]
*213 la_data_in[91]
*214 la_data_in[92]
*215 la_data_in[93]
*216 la_data_in[94]
*217 la_data_in[95]
*218 la_data_in[96]
*219 la_data_in[97]
*220 la_data_in[98]
*221 la_data_in[99]
*222 la_data_in[9]
*223 la_data_out[0]
*224 la_data_out[1]
*225 la_data_out[2]
*226 la_data_out[3]
*227 la_data_out[4]
*228 la_data_out[5]
*229 la_data_out[6]
*230 la_data_out[7]
*231 la_data_out[8]
*232 la_data_out[9]
*233 la_oenb[0]
*234 la_oenb[100]
*235 la_oenb[101]
*236 la_oenb[102]
*237 la_oenb[103]
*238 la_oenb[104]
*239 la_oenb[105]
*240 la_oenb[106]
*241 la_oenb[107]
*242 la_oenb[108]
*243 la_oenb[109]
*244 la_oenb[10]
*245 la_oenb[110]
*246 la_oenb[111]
*247 la_oenb[112]
*248 la_oenb[113]
*249 la_oenb[114]
*250 la_oenb[115]
*251 la_oenb[116]
*252 la_oenb[117]
*253 la_oenb[118]
*254 la_oenb[119]
*255 la_oenb[11]
*256 la_oenb[120]
*257 la_oenb[121]
*258 la_oenb[122]
*259 la_oenb[123]
*260 la_oenb[124]
*261 la_oenb[125]
*262 la_oenb[126]
*263 la_oenb[127]
*264 la_oenb[12]
*265 la_oenb[13]
*266 la_oenb[14]
*267 la_oenb[15]
*268 la_oenb[16]
*269 la_oenb[17]
*270 la_oenb[18]
*271 la_oenb[19]
*272 la_oenb[1]
*273 la_oenb[20]
*274 la_oenb[21]
*275 la_oenb[22]
*276 la_oenb[23]
*277 la_oenb[24]
*278 la_oenb[25]
*279 la_oenb[26]
*280 la_oenb[27]
*281 la_oenb[28]
*282 la_oenb[29]
*283 la_oenb[2]
*284 la_oenb[30]
*285 la_oenb[31]
*286 la_oenb[32]
*287 la_oenb[33]
*288 la_oenb[34]
*289 la_oenb[35]
*290 la_oenb[36]
*291 la_oenb[37]
*292 la_oenb[38]
*293 la_oenb[39]
*294 la_oenb[3]
*295 la_oenb[40]
*296 la_oenb[41]
*297 la_oenb[42]
*298 la_oenb[43]
*299 la_oenb[44]
*300 la_oenb[45]
*301 la_oenb[46]
*302 la_oenb[47]
*303 la_oenb[48]
*304 la_oenb[49]
*305 la_oenb[4]
*306 la_oenb[50]
*307 la_oenb[51]
*308 la_oenb[52]
*309 la_oenb[53]
*310 la_oenb[54]
*311 la_oenb[55]
*312 la_oenb[56]
*313 la_oenb[57]
*314 la_oenb[58]
*315 la_oenb[59]
*316 la_oenb[5]
*317 la_oenb[60]
*318 la_oenb[61]
*319 la_oenb[62]
*320 la_oenb[63]
*321 la_oenb[64]
*322 la_oenb[65]
*323 la_oenb[66]
*324 la_oenb[67]
*325 la_oenb[68]
*326 la_oenb[69]
*327 la_oenb[6]
*328 la_oenb[70]
*329 la_oenb[71]
*330 la_oenb[72]
*331 la_oenb[73]
*332 la_oenb[74]
*333 la_oenb[75]
*334 la_oenb[76]
*335 la_oenb[77]
*336 la_oenb[78]
*337 la_oenb[79]
*338 la_oenb[7]
*339 la_oenb[80]
*340 la_oenb[81]
*341 la_oenb[82]
*342 la_oenb[83]
*343 la_oenb[84]
*344 la_oenb[85]
*345 la_oenb[86]
*346 la_oenb[87]
*347 la_oenb[88]
*348 la_oenb[89]
*349 la_oenb[8]
*350 la_oenb[90]
*351 la_oenb[91]
*352 la_oenb[92]
*353 la_oenb[93]
*354 la_oenb[94]
*355 la_oenb[95]
*356 la_oenb[96]
*357 la_oenb[97]
*358 la_oenb[98]
*359 la_oenb[99]
*360 la_oenb[9]
*369 wb_clk_i
*370 wb_rst_i
*371 wbs_adr_i[0]
*372 wbs_adr_i[10]
*373 wbs_adr_i[11]
*374 wbs_adr_i[12]
*375 wbs_adr_i[13]
*376 wbs_adr_i[14]
*377 wbs_adr_i[15]
*378 wbs_adr_i[16]
*379 wbs_adr_i[17]
*380 wbs_adr_i[18]
*381 wbs_adr_i[19]
*382 wbs_adr_i[1]
*383 wbs_adr_i[20]
*384 wbs_adr_i[21]
*385 wbs_adr_i[22]
*386 wbs_adr_i[23]
*387 wbs_adr_i[24]
*388 wbs_adr_i[25]
*389 wbs_adr_i[26]
*390 wbs_adr_i[27]
*391 wbs_adr_i[28]
*392 wbs_adr_i[29]
*393 wbs_adr_i[2]
*394 wbs_adr_i[30]
*395 wbs_adr_i[31]
*396 wbs_adr_i[3]
*397 wbs_adr_i[4]
*398 wbs_adr_i[5]
*399 wbs_adr_i[6]
*400 wbs_adr_i[7]
*401 wbs_adr_i[8]
*402 wbs_adr_i[9]
*403 wbs_cyc_i
*404 wbs_dat_i[0]
*405 wbs_dat_i[10]
*406 wbs_dat_i[11]
*407 wbs_dat_i[12]
*408 wbs_dat_i[13]
*409 wbs_dat_i[14]
*410 wbs_dat_i[15]
*411 wbs_dat_i[16]
*412 wbs_dat_i[17]
*413 wbs_dat_i[18]
*414 wbs_dat_i[19]
*415 wbs_dat_i[1]
*416 wbs_dat_i[20]
*417 wbs_dat_i[21]
*418 wbs_dat_i[22]
*419 wbs_dat_i[23]
*420 wbs_dat_i[24]
*421 wbs_dat_i[25]
*422 wbs_dat_i[26]
*423 wbs_dat_i[27]
*424 wbs_dat_i[28]
*425 wbs_dat_i[29]
*426 wbs_dat_i[2]
*427 wbs_dat_i[30]
*428 wbs_dat_i[31]
*429 wbs_dat_i[3]
*430 wbs_dat_i[4]
*431 wbs_dat_i[5]
*432 wbs_dat_i[6]
*433 wbs_dat_i[7]
*434 wbs_dat_i[8]
*435 wbs_dat_i[9]
*436 wbs_sel_i[0]
*437 wbs_sel_i[1]
*438 wbs_sel_i[2]
*439 wbs_sel_i[3]
*440 wbs_stb_i
*441 wbs_we_i
*442 tt_top1\.branch\[0\]\.col_um\[0\]\.um_bot_I\.clk
*443 tt_top1\.branch\[0\]\.col_um\[0\]\.um_bot_I\.ena
*444 tt_top1\.branch\[0\]\.col_um\[0\]\.um_bot_I\.iw\[10\]
*445 tt_top1\.branch\[0\]\.col_um\[0\]\.um_bot_I\.iw\[11\]
*446 tt_top1\.branch\[0\]\.col_um\[0\]\.um_bot_I\.iw\[12\]
*447 tt_top1\.branch\[0\]\.col_um\[0\]\.um_bot_I\.iw\[13\]
*448 tt_top1\.branch\[0\]\.col_um\[0\]\.um_bot_I\.iw\[14\]
*449 tt_top1\.branch\[0\]\.col_um\[0\]\.um_bot_I\.iw\[15\]
*450 tt_top1\.branch\[0\]\.col_um\[0\]\.um_bot_I\.iw\[16\]
*451 tt_top1\.branch\[0\]\.col_um\[0\]\.um_bot_I\.iw\[17\]
*452 tt_top1\.branch\[0\]\.col_um\[0\]\.um_bot_I\.iw\[1\]
*453 tt_top1\.branch\[0\]\.col_um\[0\]\.um_bot_I\.iw\[2\]
*454 tt_top1\.branch\[0\]\.col_um\[0\]\.um_bot_I\.iw\[3\]
*455 tt_top1\.branch\[0\]\.col_um\[0\]\.um_bot_I\.iw\[4\]
*456 tt_top1\.branch\[0\]\.col_um\[0\]\.um_bot_I\.iw\[5\]
*457 tt_top1\.branch\[0\]\.col_um\[0\]\.um_bot_I\.iw\[6\]
*458 tt_top1\.branch\[0\]\.col_um\[0\]\.um_bot_I\.iw\[7\]
*459 tt_top1\.branch\[0\]\.col_um\[0\]\.um_bot_I\.iw\[8\]
*460 tt_top1\.branch\[0\]\.col_um\[0\]\.um_bot_I\.iw\[9\]
*461 tt_top1\.branch\[0\]\.col_um\[0\]\.um_bot_I\.k_zero
*462 tt_top1\.branch\[0\]\.col_um\[0\]\.um_bot_I\.ow\[0\]
*463 tt_top1\.branch\[0\]\.col_um\[0\]\.um_bot_I\.ow\[10\]
*464 tt_top1\.branch\[0\]\.col_um\[0\]\.um_bot_I\.ow\[11\]
*465 tt_top1\.branch\[0\]\.col_um\[0\]\.um_bot_I\.ow\[12\]
*466 tt_top1\.branch\[0\]\.col_um\[0\]\.um_bot_I\.ow\[13\]
*467 tt_top1\.branch\[0\]\.col_um\[0\]\.um_bot_I\.ow\[14\]
*468 tt_top1\.branch\[0\]\.col_um\[0\]\.um_bot_I\.ow\[15\]
*469 tt_top1\.branch\[0\]\.col_um\[0\]\.um_bot_I\.ow\[16\]
*470 tt_top1\.branch\[0\]\.col_um\[0\]\.um_bot_I\.ow\[17\]
*471 tt_top1\.branch\[0\]\.col_um\[0\]\.um_bot_I\.ow\[18\]
*472 tt_top1\.branch\[0\]\.col_um\[0\]\.um_bot_I\.ow\[19\]
*473 tt_top1\.branch\[0\]\.col_um\[0\]\.um_bot_I\.ow\[1\]
*474 tt_top1\.branch\[0\]\.col_um\[0\]\.um_bot_I\.ow\[20\]
*475 tt_top1\.branch\[0\]\.col_um\[0\]\.um_bot_I\.ow\[21\]
*476 tt_top1\.branch\[0\]\.col_um\[0\]\.um_bot_I\.ow\[22\]
*477 tt_top1\.branch\[0\]\.col_um\[0\]\.um_bot_I\.ow\[23\]
*478 tt_top1\.branch\[0\]\.col_um\[0\]\.um_bot_I\.ow\[2\]
*479 tt_top1\.branch\[0\]\.col_um\[0\]\.um_bot_I\.ow\[3\]
*480 tt_top1\.branch\[0\]\.col_um\[0\]\.um_bot_I\.ow\[4\]
*481 tt_top1\.branch\[0\]\.col_um\[0\]\.um_bot_I\.ow\[5\]
*482 tt_top1\.branch\[0\]\.col_um\[0\]\.um_bot_I\.ow\[6\]
*483 tt_top1\.branch\[0\]\.col_um\[0\]\.um_bot_I\.ow\[7\]
*484 tt_top1\.branch\[0\]\.col_um\[0\]\.um_bot_I\.ow\[8\]
*485 tt_top1\.branch\[0\]\.col_um\[0\]\.um_bot_I\.ow\[9\]
*486 tt_top1\.branch\[0\]\.col_um\[0\]\.um_top_I\.clk
*487 tt_top1\.branch\[0\]\.col_um\[0\]\.um_top_I\.ena
*488 tt_top1\.branch\[0\]\.col_um\[0\]\.um_top_I\.iw\[10\]
*489 tt_top1\.branch\[0\]\.col_um\[0\]\.um_top_I\.iw\[11\]
*490 tt_top1\.branch\[0\]\.col_um\[0\]\.um_top_I\.iw\[12\]
*491 tt_top1\.branch\[0\]\.col_um\[0\]\.um_top_I\.iw\[13\]
*492 tt_top1\.branch\[0\]\.col_um\[0\]\.um_top_I\.iw\[14\]
*493 tt_top1\.branch\[0\]\.col_um\[0\]\.um_top_I\.iw\[15\]
*494 tt_top1\.branch\[0\]\.col_um\[0\]\.um_top_I\.iw\[16\]
*495 tt_top1\.branch\[0\]\.col_um\[0\]\.um_top_I\.iw\[17\]
*496 tt_top1\.branch\[0\]\.col_um\[0\]\.um_top_I\.iw\[1\]
*497 tt_top1\.branch\[0\]\.col_um\[0\]\.um_top_I\.iw\[2\]
*498 tt_top1\.branch\[0\]\.col_um\[0\]\.um_top_I\.iw\[3\]
*499 tt_top1\.branch\[0\]\.col_um\[0\]\.um_top_I\.iw\[4\]
*500 tt_top1\.branch\[0\]\.col_um\[0\]\.um_top_I\.iw\[5\]
*501 tt_top1\.branch\[0\]\.col_um\[0\]\.um_top_I\.iw\[6\]
*502 tt_top1\.branch\[0\]\.col_um\[0\]\.um_top_I\.iw\[7\]
*503 tt_top1\.branch\[0\]\.col_um\[0\]\.um_top_I\.iw\[8\]
*504 tt_top1\.branch\[0\]\.col_um\[0\]\.um_top_I\.iw\[9\]
*505 tt_top1\.branch\[0\]\.col_um\[0\]\.um_top_I\.k_zero
*506 tt_top1\.branch\[0\]\.col_um\[0\]\.um_top_I\.ow\[0\]
*507 tt_top1\.branch\[0\]\.col_um\[0\]\.um_top_I\.ow\[10\]
*508 tt_top1\.branch\[0\]\.col_um\[0\]\.um_top_I\.ow\[11\]
*509 tt_top1\.branch\[0\]\.col_um\[0\]\.um_top_I\.ow\[12\]
*510 tt_top1\.branch\[0\]\.col_um\[0\]\.um_top_I\.ow\[13\]
*511 tt_top1\.branch\[0\]\.col_um\[0\]\.um_top_I\.ow\[14\]
*512 tt_top1\.branch\[0\]\.col_um\[0\]\.um_top_I\.ow\[15\]
*513 tt_top1\.branch\[0\]\.col_um\[0\]\.um_top_I\.ow\[16\]
*514 tt_top1\.branch\[0\]\.col_um\[0\]\.um_top_I\.ow\[17\]
*515 tt_top1\.branch\[0\]\.col_um\[0\]\.um_top_I\.ow\[18\]
*516 tt_top1\.branch\[0\]\.col_um\[0\]\.um_top_I\.ow\[19\]
*517 tt_top1\.branch\[0\]\.col_um\[0\]\.um_top_I\.ow\[1\]
*518 tt_top1\.branch\[0\]\.col_um\[0\]\.um_top_I\.ow\[20\]
*519 tt_top1\.branch\[0\]\.col_um\[0\]\.um_top_I\.ow\[21\]
*520 tt_top1\.branch\[0\]\.col_um\[0\]\.um_top_I\.ow\[22\]
*521 tt_top1\.branch\[0\]\.col_um\[0\]\.um_top_I\.ow\[23\]
*522 tt_top1\.branch\[0\]\.col_um\[0\]\.um_top_I\.ow\[2\]
*523 tt_top1\.branch\[0\]\.col_um\[0\]\.um_top_I\.ow\[3\]
*524 tt_top1\.branch\[0\]\.col_um\[0\]\.um_top_I\.ow\[4\]
*525 tt_top1\.branch\[0\]\.col_um\[0\]\.um_top_I\.ow\[5\]
*526 tt_top1\.branch\[0\]\.col_um\[0\]\.um_top_I\.ow\[6\]
*527 tt_top1\.branch\[0\]\.col_um\[0\]\.um_top_I\.ow\[7\]
*528 tt_top1\.branch\[0\]\.col_um\[0\]\.um_top_I\.ow\[8\]
*529 tt_top1\.branch\[0\]\.col_um\[0\]\.um_top_I\.ow\[9\]
*530 tt_top1\.branch\[0\]\.col_um\[1\]\.um_bot_I\.clk
*531 tt_top1\.branch\[0\]\.col_um\[1\]\.um_bot_I\.ena
*532 tt_top1\.branch\[0\]\.col_um\[1\]\.um_bot_I\.iw\[10\]
*533 tt_top1\.branch\[0\]\.col_um\[1\]\.um_bot_I\.iw\[11\]
*534 tt_top1\.branch\[0\]\.col_um\[1\]\.um_bot_I\.iw\[12\]
*535 tt_top1\.branch\[0\]\.col_um\[1\]\.um_bot_I\.iw\[13\]
*536 tt_top1\.branch\[0\]\.col_um\[1\]\.um_bot_I\.iw\[14\]
*537 tt_top1\.branch\[0\]\.col_um\[1\]\.um_bot_I\.iw\[15\]
*538 tt_top1\.branch\[0\]\.col_um\[1\]\.um_bot_I\.iw\[16\]
*539 tt_top1\.branch\[0\]\.col_um\[1\]\.um_bot_I\.iw\[17\]
*540 tt_top1\.branch\[0\]\.col_um\[1\]\.um_bot_I\.iw\[1\]
*541 tt_top1\.branch\[0\]\.col_um\[1\]\.um_bot_I\.iw\[2\]
*542 tt_top1\.branch\[0\]\.col_um\[1\]\.um_bot_I\.iw\[3\]
*543 tt_top1\.branch\[0\]\.col_um\[1\]\.um_bot_I\.iw\[4\]
*544 tt_top1\.branch\[0\]\.col_um\[1\]\.um_bot_I\.iw\[5\]
*545 tt_top1\.branch\[0\]\.col_um\[1\]\.um_bot_I\.iw\[6\]
*546 tt_top1\.branch\[0\]\.col_um\[1\]\.um_bot_I\.iw\[7\]
*547 tt_top1\.branch\[0\]\.col_um\[1\]\.um_bot_I\.iw\[8\]
*548 tt_top1\.branch\[0\]\.col_um\[1\]\.um_bot_I\.iw\[9\]
*549 tt_top1\.branch\[0\]\.col_um\[1\]\.um_bot_I\.k_zero
*550 tt_top1\.branch\[0\]\.col_um\[1\]\.um_bot_I\.ow\[0\]
*551 tt_top1\.branch\[0\]\.col_um\[1\]\.um_bot_I\.ow\[10\]
*552 tt_top1\.branch\[0\]\.col_um\[1\]\.um_bot_I\.ow\[11\]
*553 tt_top1\.branch\[0\]\.col_um\[1\]\.um_bot_I\.ow\[12\]
*554 tt_top1\.branch\[0\]\.col_um\[1\]\.um_bot_I\.ow\[13\]
*555 tt_top1\.branch\[0\]\.col_um\[1\]\.um_bot_I\.ow\[14\]
*556 tt_top1\.branch\[0\]\.col_um\[1\]\.um_bot_I\.ow\[15\]
*557 tt_top1\.branch\[0\]\.col_um\[1\]\.um_bot_I\.ow\[16\]
*558 tt_top1\.branch\[0\]\.col_um\[1\]\.um_bot_I\.ow\[17\]
*559 tt_top1\.branch\[0\]\.col_um\[1\]\.um_bot_I\.ow\[18\]
*560 tt_top1\.branch\[0\]\.col_um\[1\]\.um_bot_I\.ow\[19\]
*561 tt_top1\.branch\[0\]\.col_um\[1\]\.um_bot_I\.ow\[1\]
*562 tt_top1\.branch\[0\]\.col_um\[1\]\.um_bot_I\.ow\[20\]
*563 tt_top1\.branch\[0\]\.col_um\[1\]\.um_bot_I\.ow\[21\]
*564 tt_top1\.branch\[0\]\.col_um\[1\]\.um_bot_I\.ow\[22\]
*565 tt_top1\.branch\[0\]\.col_um\[1\]\.um_bot_I\.ow\[23\]
*566 tt_top1\.branch\[0\]\.col_um\[1\]\.um_bot_I\.ow\[2\]
*567 tt_top1\.branch\[0\]\.col_um\[1\]\.um_bot_I\.ow\[3\]
*568 tt_top1\.branch\[0\]\.col_um\[1\]\.um_bot_I\.ow\[4\]
*569 tt_top1\.branch\[0\]\.col_um\[1\]\.um_bot_I\.ow\[5\]
*570 tt_top1\.branch\[0\]\.col_um\[1\]\.um_bot_I\.ow\[6\]
*571 tt_top1\.branch\[0\]\.col_um\[1\]\.um_bot_I\.ow\[7\]
*572 tt_top1\.branch\[0\]\.col_um\[1\]\.um_bot_I\.ow\[8\]
*573 tt_top1\.branch\[0\]\.col_um\[1\]\.um_bot_I\.ow\[9\]
*574 tt_top1\.branch\[0\]\.col_um\[1\]\.um_top_I\.clk
*575 tt_top1\.branch\[0\]\.col_um\[1\]\.um_top_I\.ena
*576 tt_top1\.branch\[0\]\.col_um\[1\]\.um_top_I\.iw\[10\]
*577 tt_top1\.branch\[0\]\.col_um\[1\]\.um_top_I\.iw\[11\]
*578 tt_top1\.branch\[0\]\.col_um\[1\]\.um_top_I\.iw\[12\]
*579 tt_top1\.branch\[0\]\.col_um\[1\]\.um_top_I\.iw\[13\]
*580 tt_top1\.branch\[0\]\.col_um\[1\]\.um_top_I\.iw\[14\]
*581 tt_top1\.branch\[0\]\.col_um\[1\]\.um_top_I\.iw\[15\]
*582 tt_top1\.branch\[0\]\.col_um\[1\]\.um_top_I\.iw\[16\]
*583 tt_top1\.branch\[0\]\.col_um\[1\]\.um_top_I\.iw\[17\]
*584 tt_top1\.branch\[0\]\.col_um\[1\]\.um_top_I\.iw\[1\]
*585 tt_top1\.branch\[0\]\.col_um\[1\]\.um_top_I\.iw\[2\]
*586 tt_top1\.branch\[0\]\.col_um\[1\]\.um_top_I\.iw\[3\]
*587 tt_top1\.branch\[0\]\.col_um\[1\]\.um_top_I\.iw\[4\]
*588 tt_top1\.branch\[0\]\.col_um\[1\]\.um_top_I\.iw\[5\]
*589 tt_top1\.branch\[0\]\.col_um\[1\]\.um_top_I\.iw\[6\]
*590 tt_top1\.branch\[0\]\.col_um\[1\]\.um_top_I\.iw\[7\]
*591 tt_top1\.branch\[0\]\.col_um\[1\]\.um_top_I\.iw\[8\]
*592 tt_top1\.branch\[0\]\.col_um\[1\]\.um_top_I\.iw\[9\]
*593 tt_top1\.branch\[0\]\.col_um\[1\]\.um_top_I\.k_zero
*594 tt_top1\.branch\[0\]\.col_um\[1\]\.um_top_I\.ow\[0\]
*595 tt_top1\.branch\[0\]\.col_um\[1\]\.um_top_I\.ow\[10\]
*596 tt_top1\.branch\[0\]\.col_um\[1\]\.um_top_I\.ow\[11\]
*597 tt_top1\.branch\[0\]\.col_um\[1\]\.um_top_I\.ow\[12\]
*598 tt_top1\.branch\[0\]\.col_um\[1\]\.um_top_I\.ow\[13\]
*599 tt_top1\.branch\[0\]\.col_um\[1\]\.um_top_I\.ow\[14\]
*600 tt_top1\.branch\[0\]\.col_um\[1\]\.um_top_I\.ow\[15\]
*601 tt_top1\.branch\[0\]\.col_um\[1\]\.um_top_I\.ow\[16\]
*602 tt_top1\.branch\[0\]\.col_um\[1\]\.um_top_I\.ow\[17\]
*603 tt_top1\.branch\[0\]\.col_um\[1\]\.um_top_I\.ow\[18\]
*604 tt_top1\.branch\[0\]\.col_um\[1\]\.um_top_I\.ow\[19\]
*605 tt_top1\.branch\[0\]\.col_um\[1\]\.um_top_I\.ow\[1\]
*606 tt_top1\.branch\[0\]\.col_um\[1\]\.um_top_I\.ow\[20\]
*607 tt_top1\.branch\[0\]\.col_um\[1\]\.um_top_I\.ow\[21\]
*608 tt_top1\.branch\[0\]\.col_um\[1\]\.um_top_I\.ow\[22\]
*609 tt_top1\.branch\[0\]\.col_um\[1\]\.um_top_I\.ow\[23\]
*610 tt_top1\.branch\[0\]\.col_um\[1\]\.um_top_I\.ow\[2\]
*611 tt_top1\.branch\[0\]\.col_um\[1\]\.um_top_I\.ow\[3\]
*612 tt_top1\.branch\[0\]\.col_um\[1\]\.um_top_I\.ow\[4\]
*613 tt_top1\.branch\[0\]\.col_um\[1\]\.um_top_I\.ow\[5\]
*614 tt_top1\.branch\[0\]\.col_um\[1\]\.um_top_I\.ow\[6\]
*615 tt_top1\.branch\[0\]\.col_um\[1\]\.um_top_I\.ow\[7\]
*616 tt_top1\.branch\[0\]\.col_um\[1\]\.um_top_I\.ow\[8\]
*617 tt_top1\.branch\[0\]\.col_um\[1\]\.um_top_I\.ow\[9\]
*618 tt_top1\.branch\[0\]\.col_um\[2\]\.um_bot_I\.clk
*619 tt_top1\.branch\[0\]\.col_um\[2\]\.um_bot_I\.ena
*620 tt_top1\.branch\[0\]\.col_um\[2\]\.um_bot_I\.iw\[10\]
*621 tt_top1\.branch\[0\]\.col_um\[2\]\.um_bot_I\.iw\[11\]
*622 tt_top1\.branch\[0\]\.col_um\[2\]\.um_bot_I\.iw\[12\]
*623 tt_top1\.branch\[0\]\.col_um\[2\]\.um_bot_I\.iw\[13\]
*624 tt_top1\.branch\[0\]\.col_um\[2\]\.um_bot_I\.iw\[14\]
*625 tt_top1\.branch\[0\]\.col_um\[2\]\.um_bot_I\.iw\[15\]
*626 tt_top1\.branch\[0\]\.col_um\[2\]\.um_bot_I\.iw\[16\]
*627 tt_top1\.branch\[0\]\.col_um\[2\]\.um_bot_I\.iw\[17\]
*628 tt_top1\.branch\[0\]\.col_um\[2\]\.um_bot_I\.iw\[1\]
*629 tt_top1\.branch\[0\]\.col_um\[2\]\.um_bot_I\.iw\[2\]
*630 tt_top1\.branch\[0\]\.col_um\[2\]\.um_bot_I\.iw\[3\]
*631 tt_top1\.branch\[0\]\.col_um\[2\]\.um_bot_I\.iw\[4\]
*632 tt_top1\.branch\[0\]\.col_um\[2\]\.um_bot_I\.iw\[5\]
*633 tt_top1\.branch\[0\]\.col_um\[2\]\.um_bot_I\.iw\[6\]
*634 tt_top1\.branch\[0\]\.col_um\[2\]\.um_bot_I\.iw\[7\]
*635 tt_top1\.branch\[0\]\.col_um\[2\]\.um_bot_I\.iw\[8\]
*636 tt_top1\.branch\[0\]\.col_um\[2\]\.um_bot_I\.iw\[9\]
*637 tt_top1\.branch\[0\]\.col_um\[2\]\.um_bot_I\.k_zero
*638 tt_top1\.branch\[0\]\.col_um\[2\]\.um_bot_I\.ow\[0\]
*639 tt_top1\.branch\[0\]\.col_um\[2\]\.um_bot_I\.ow\[10\]
*640 tt_top1\.branch\[0\]\.col_um\[2\]\.um_bot_I\.ow\[11\]
*641 tt_top1\.branch\[0\]\.col_um\[2\]\.um_bot_I\.ow\[12\]
*642 tt_top1\.branch\[0\]\.col_um\[2\]\.um_bot_I\.ow\[13\]
*643 tt_top1\.branch\[0\]\.col_um\[2\]\.um_bot_I\.ow\[14\]
*644 tt_top1\.branch\[0\]\.col_um\[2\]\.um_bot_I\.ow\[15\]
*645 tt_top1\.branch\[0\]\.col_um\[2\]\.um_bot_I\.ow\[16\]
*646 tt_top1\.branch\[0\]\.col_um\[2\]\.um_bot_I\.ow\[17\]
*647 tt_top1\.branch\[0\]\.col_um\[2\]\.um_bot_I\.ow\[18\]
*648 tt_top1\.branch\[0\]\.col_um\[2\]\.um_bot_I\.ow\[19\]
*649 tt_top1\.branch\[0\]\.col_um\[2\]\.um_bot_I\.ow\[1\]
*650 tt_top1\.branch\[0\]\.col_um\[2\]\.um_bot_I\.ow\[20\]
*651 tt_top1\.branch\[0\]\.col_um\[2\]\.um_bot_I\.ow\[21\]
*652 tt_top1\.branch\[0\]\.col_um\[2\]\.um_bot_I\.ow\[22\]
*653 tt_top1\.branch\[0\]\.col_um\[2\]\.um_bot_I\.ow\[23\]
*654 tt_top1\.branch\[0\]\.col_um\[2\]\.um_bot_I\.ow\[2\]
*655 tt_top1\.branch\[0\]\.col_um\[2\]\.um_bot_I\.ow\[3\]
*656 tt_top1\.branch\[0\]\.col_um\[2\]\.um_bot_I\.ow\[4\]
*657 tt_top1\.branch\[0\]\.col_um\[2\]\.um_bot_I\.ow\[5\]
*658 tt_top1\.branch\[0\]\.col_um\[2\]\.um_bot_I\.ow\[6\]
*659 tt_top1\.branch\[0\]\.col_um\[2\]\.um_bot_I\.ow\[7\]
*660 tt_top1\.branch\[0\]\.col_um\[2\]\.um_bot_I\.ow\[8\]
*661 tt_top1\.branch\[0\]\.col_um\[2\]\.um_bot_I\.ow\[9\]
*662 tt_top1\.branch\[0\]\.col_um\[2\]\.um_top_I\.clk
*663 tt_top1\.branch\[0\]\.col_um\[2\]\.um_top_I\.ena
*664 tt_top1\.branch\[0\]\.col_um\[2\]\.um_top_I\.iw\[10\]
*665 tt_top1\.branch\[0\]\.col_um\[2\]\.um_top_I\.iw\[11\]
*666 tt_top1\.branch\[0\]\.col_um\[2\]\.um_top_I\.iw\[12\]
*667 tt_top1\.branch\[0\]\.col_um\[2\]\.um_top_I\.iw\[13\]
*668 tt_top1\.branch\[0\]\.col_um\[2\]\.um_top_I\.iw\[14\]
*669 tt_top1\.branch\[0\]\.col_um\[2\]\.um_top_I\.iw\[15\]
*670 tt_top1\.branch\[0\]\.col_um\[2\]\.um_top_I\.iw\[16\]
*671 tt_top1\.branch\[0\]\.col_um\[2\]\.um_top_I\.iw\[17\]
*672 tt_top1\.branch\[0\]\.col_um\[2\]\.um_top_I\.iw\[1\]
*673 tt_top1\.branch\[0\]\.col_um\[2\]\.um_top_I\.iw\[2\]
*674 tt_top1\.branch\[0\]\.col_um\[2\]\.um_top_I\.iw\[3\]
*675 tt_top1\.branch\[0\]\.col_um\[2\]\.um_top_I\.iw\[4\]
*676 tt_top1\.branch\[0\]\.col_um\[2\]\.um_top_I\.iw\[5\]
*677 tt_top1\.branch\[0\]\.col_um\[2\]\.um_top_I\.iw\[6\]
*678 tt_top1\.branch\[0\]\.col_um\[2\]\.um_top_I\.iw\[7\]
*679 tt_top1\.branch\[0\]\.col_um\[2\]\.um_top_I\.iw\[8\]
*680 tt_top1\.branch\[0\]\.col_um\[2\]\.um_top_I\.iw\[9\]
*681 tt_top1\.branch\[0\]\.col_um\[2\]\.um_top_I\.k_zero
*682 tt_top1\.branch\[0\]\.col_um\[2\]\.um_top_I\.ow\[0\]
*683 tt_top1\.branch\[0\]\.col_um\[2\]\.um_top_I\.ow\[10\]
*684 tt_top1\.branch\[0\]\.col_um\[2\]\.um_top_I\.ow\[11\]
*685 tt_top1\.branch\[0\]\.col_um\[2\]\.um_top_I\.ow\[12\]
*686 tt_top1\.branch\[0\]\.col_um\[2\]\.um_top_I\.ow\[13\]
*687 tt_top1\.branch\[0\]\.col_um\[2\]\.um_top_I\.ow\[14\]
*688 tt_top1\.branch\[0\]\.col_um\[2\]\.um_top_I\.ow\[15\]
*689 tt_top1\.branch\[0\]\.col_um\[2\]\.um_top_I\.ow\[16\]
*690 tt_top1\.branch\[0\]\.col_um\[2\]\.um_top_I\.ow\[17\]
*691 tt_top1\.branch\[0\]\.col_um\[2\]\.um_top_I\.ow\[18\]
*692 tt_top1\.branch\[0\]\.col_um\[2\]\.um_top_I\.ow\[19\]
*693 tt_top1\.branch\[0\]\.col_um\[2\]\.um_top_I\.ow\[1\]
*694 tt_top1\.branch\[0\]\.col_um\[2\]\.um_top_I\.ow\[20\]
*695 tt_top1\.branch\[0\]\.col_um\[2\]\.um_top_I\.ow\[21\]
*696 tt_top1\.branch\[0\]\.col_um\[2\]\.um_top_I\.ow\[22\]
*697 tt_top1\.branch\[0\]\.col_um\[2\]\.um_top_I\.ow\[23\]
*698 tt_top1\.branch\[0\]\.col_um\[2\]\.um_top_I\.ow\[2\]
*699 tt_top1\.branch\[0\]\.col_um\[2\]\.um_top_I\.ow\[3\]
*700 tt_top1\.branch\[0\]\.col_um\[2\]\.um_top_I\.ow\[4\]
*701 tt_top1\.branch\[0\]\.col_um\[2\]\.um_top_I\.ow\[5\]
*702 tt_top1\.branch\[0\]\.col_um\[2\]\.um_top_I\.ow\[6\]
*703 tt_top1\.branch\[0\]\.col_um\[2\]\.um_top_I\.ow\[7\]
*704 tt_top1\.branch\[0\]\.col_um\[2\]\.um_top_I\.ow\[8\]
*705 tt_top1\.branch\[0\]\.col_um\[2\]\.um_top_I\.ow\[9\]
*706 tt_top1\.branch\[0\]\.col_um\[3\]\.um_bot_I\.clk
*707 tt_top1\.branch\[0\]\.col_um\[3\]\.um_bot_I\.ena
*708 tt_top1\.branch\[0\]\.col_um\[3\]\.um_bot_I\.iw\[10\]
*709 tt_top1\.branch\[0\]\.col_um\[3\]\.um_bot_I\.iw\[11\]
*710 tt_top1\.branch\[0\]\.col_um\[3\]\.um_bot_I\.iw\[12\]
*711 tt_top1\.branch\[0\]\.col_um\[3\]\.um_bot_I\.iw\[13\]
*712 tt_top1\.branch\[0\]\.col_um\[3\]\.um_bot_I\.iw\[14\]
*713 tt_top1\.branch\[0\]\.col_um\[3\]\.um_bot_I\.iw\[15\]
*714 tt_top1\.branch\[0\]\.col_um\[3\]\.um_bot_I\.iw\[16\]
*715 tt_top1\.branch\[0\]\.col_um\[3\]\.um_bot_I\.iw\[17\]
*716 tt_top1\.branch\[0\]\.col_um\[3\]\.um_bot_I\.iw\[1\]
*717 tt_top1\.branch\[0\]\.col_um\[3\]\.um_bot_I\.iw\[2\]
*718 tt_top1\.branch\[0\]\.col_um\[3\]\.um_bot_I\.iw\[3\]
*719 tt_top1\.branch\[0\]\.col_um\[3\]\.um_bot_I\.iw\[4\]
*720 tt_top1\.branch\[0\]\.col_um\[3\]\.um_bot_I\.iw\[5\]
*721 tt_top1\.branch\[0\]\.col_um\[3\]\.um_bot_I\.iw\[6\]
*722 tt_top1\.branch\[0\]\.col_um\[3\]\.um_bot_I\.iw\[7\]
*723 tt_top1\.branch\[0\]\.col_um\[3\]\.um_bot_I\.iw\[8\]
*724 tt_top1\.branch\[0\]\.col_um\[3\]\.um_bot_I\.iw\[9\]
*725 tt_top1\.branch\[0\]\.col_um\[3\]\.um_bot_I\.k_zero
*726 tt_top1\.branch\[0\]\.col_um\[3\]\.um_bot_I\.ow\[0\]
*727 tt_top1\.branch\[0\]\.col_um\[3\]\.um_bot_I\.ow\[10\]
*728 tt_top1\.branch\[0\]\.col_um\[3\]\.um_bot_I\.ow\[11\]
*729 tt_top1\.branch\[0\]\.col_um\[3\]\.um_bot_I\.ow\[12\]
*730 tt_top1\.branch\[0\]\.col_um\[3\]\.um_bot_I\.ow\[13\]
*731 tt_top1\.branch\[0\]\.col_um\[3\]\.um_bot_I\.ow\[14\]
*732 tt_top1\.branch\[0\]\.col_um\[3\]\.um_bot_I\.ow\[15\]
*733 tt_top1\.branch\[0\]\.col_um\[3\]\.um_bot_I\.ow\[16\]
*734 tt_top1\.branch\[0\]\.col_um\[3\]\.um_bot_I\.ow\[17\]
*735 tt_top1\.branch\[0\]\.col_um\[3\]\.um_bot_I\.ow\[18\]
*736 tt_top1\.branch\[0\]\.col_um\[3\]\.um_bot_I\.ow\[19\]
*737 tt_top1\.branch\[0\]\.col_um\[3\]\.um_bot_I\.ow\[1\]
*738 tt_top1\.branch\[0\]\.col_um\[3\]\.um_bot_I\.ow\[20\]
*739 tt_top1\.branch\[0\]\.col_um\[3\]\.um_bot_I\.ow\[21\]
*740 tt_top1\.branch\[0\]\.col_um\[3\]\.um_bot_I\.ow\[22\]
*741 tt_top1\.branch\[0\]\.col_um\[3\]\.um_bot_I\.ow\[23\]
*742 tt_top1\.branch\[0\]\.col_um\[3\]\.um_bot_I\.ow\[2\]
*743 tt_top1\.branch\[0\]\.col_um\[3\]\.um_bot_I\.ow\[3\]
*744 tt_top1\.branch\[0\]\.col_um\[3\]\.um_bot_I\.ow\[4\]
*745 tt_top1\.branch\[0\]\.col_um\[3\]\.um_bot_I\.ow\[5\]
*746 tt_top1\.branch\[0\]\.col_um\[3\]\.um_bot_I\.ow\[6\]
*747 tt_top1\.branch\[0\]\.col_um\[3\]\.um_bot_I\.ow\[7\]
*748 tt_top1\.branch\[0\]\.col_um\[3\]\.um_bot_I\.ow\[8\]
*749 tt_top1\.branch\[0\]\.col_um\[3\]\.um_bot_I\.ow\[9\]
*750 tt_top1\.branch\[0\]\.col_um\[3\]\.um_top_I\.clk
*751 tt_top1\.branch\[0\]\.col_um\[3\]\.um_top_I\.ena
*752 tt_top1\.branch\[0\]\.col_um\[3\]\.um_top_I\.iw\[10\]
*753 tt_top1\.branch\[0\]\.col_um\[3\]\.um_top_I\.iw\[11\]
*754 tt_top1\.branch\[0\]\.col_um\[3\]\.um_top_I\.iw\[12\]
*755 tt_top1\.branch\[0\]\.col_um\[3\]\.um_top_I\.iw\[13\]
*756 tt_top1\.branch\[0\]\.col_um\[3\]\.um_top_I\.iw\[14\]
*757 tt_top1\.branch\[0\]\.col_um\[3\]\.um_top_I\.iw\[15\]
*758 tt_top1\.branch\[0\]\.col_um\[3\]\.um_top_I\.iw\[16\]
*759 tt_top1\.branch\[0\]\.col_um\[3\]\.um_top_I\.iw\[17\]
*760 tt_top1\.branch\[0\]\.col_um\[3\]\.um_top_I\.iw\[1\]
*761 tt_top1\.branch\[0\]\.col_um\[3\]\.um_top_I\.iw\[2\]
*762 tt_top1\.branch\[0\]\.col_um\[3\]\.um_top_I\.iw\[3\]
*763 tt_top1\.branch\[0\]\.col_um\[3\]\.um_top_I\.iw\[4\]
*764 tt_top1\.branch\[0\]\.col_um\[3\]\.um_top_I\.iw\[5\]
*765 tt_top1\.branch\[0\]\.col_um\[3\]\.um_top_I\.iw\[6\]
*766 tt_top1\.branch\[0\]\.col_um\[3\]\.um_top_I\.iw\[7\]
*767 tt_top1\.branch\[0\]\.col_um\[3\]\.um_top_I\.iw\[8\]
*768 tt_top1\.branch\[0\]\.col_um\[3\]\.um_top_I\.iw\[9\]
*769 tt_top1\.branch\[0\]\.col_um\[3\]\.um_top_I\.k_zero
*770 tt_top1\.branch\[0\]\.col_um\[3\]\.um_top_I\.ow\[0\]
*771 tt_top1\.branch\[0\]\.col_um\[3\]\.um_top_I\.ow\[10\]
*772 tt_top1\.branch\[0\]\.col_um\[3\]\.um_top_I\.ow\[11\]
*773 tt_top1\.branch\[0\]\.col_um\[3\]\.um_top_I\.ow\[12\]
*774 tt_top1\.branch\[0\]\.col_um\[3\]\.um_top_I\.ow\[13\]
*775 tt_top1\.branch\[0\]\.col_um\[3\]\.um_top_I\.ow\[14\]
*776 tt_top1\.branch\[0\]\.col_um\[3\]\.um_top_I\.ow\[15\]
*777 tt_top1\.branch\[0\]\.col_um\[3\]\.um_top_I\.ow\[16\]
*778 tt_top1\.branch\[0\]\.col_um\[3\]\.um_top_I\.ow\[17\]
*779 tt_top1\.branch\[0\]\.col_um\[3\]\.um_top_I\.ow\[18\]
*780 tt_top1\.branch\[0\]\.col_um\[3\]\.um_top_I\.ow\[19\]
*781 tt_top1\.branch\[0\]\.col_um\[3\]\.um_top_I\.ow\[1\]
*782 tt_top1\.branch\[0\]\.col_um\[3\]\.um_top_I\.ow\[20\]
*783 tt_top1\.branch\[0\]\.col_um\[3\]\.um_top_I\.ow\[21\]
*784 tt_top1\.branch\[0\]\.col_um\[3\]\.um_top_I\.ow\[22\]
*785 tt_top1\.branch\[0\]\.col_um\[3\]\.um_top_I\.ow\[23\]
*786 tt_top1\.branch\[0\]\.col_um\[3\]\.um_top_I\.ow\[2\]
*787 tt_top1\.branch\[0\]\.col_um\[3\]\.um_top_I\.ow\[3\]
*788 tt_top1\.branch\[0\]\.col_um\[3\]\.um_top_I\.ow\[4\]
*789 tt_top1\.branch\[0\]\.col_um\[3\]\.um_top_I\.ow\[5\]
*790 tt_top1\.branch\[0\]\.col_um\[3\]\.um_top_I\.ow\[6\]
*791 tt_top1\.branch\[0\]\.col_um\[3\]\.um_top_I\.ow\[7\]
*792 tt_top1\.branch\[0\]\.col_um\[3\]\.um_top_I\.ow\[8\]
*793 tt_top1\.branch\[0\]\.col_um\[3\]\.um_top_I\.ow\[9\]
*794 tt_top1\.branch\[0\]\.col_um\[4\]\.um_bot_I\.clk
*795 tt_top1\.branch\[0\]\.col_um\[4\]\.um_bot_I\.ena
*796 tt_top1\.branch\[0\]\.col_um\[4\]\.um_bot_I\.iw\[10\]
*797 tt_top1\.branch\[0\]\.col_um\[4\]\.um_bot_I\.iw\[11\]
*798 tt_top1\.branch\[0\]\.col_um\[4\]\.um_bot_I\.iw\[12\]
*799 tt_top1\.branch\[0\]\.col_um\[4\]\.um_bot_I\.iw\[13\]
*800 tt_top1\.branch\[0\]\.col_um\[4\]\.um_bot_I\.iw\[14\]
*801 tt_top1\.branch\[0\]\.col_um\[4\]\.um_bot_I\.iw\[15\]
*802 tt_top1\.branch\[0\]\.col_um\[4\]\.um_bot_I\.iw\[16\]
*803 tt_top1\.branch\[0\]\.col_um\[4\]\.um_bot_I\.iw\[17\]
*804 tt_top1\.branch\[0\]\.col_um\[4\]\.um_bot_I\.iw\[1\]
*805 tt_top1\.branch\[0\]\.col_um\[4\]\.um_bot_I\.iw\[2\]
*806 tt_top1\.branch\[0\]\.col_um\[4\]\.um_bot_I\.iw\[3\]
*807 tt_top1\.branch\[0\]\.col_um\[4\]\.um_bot_I\.iw\[4\]
*808 tt_top1\.branch\[0\]\.col_um\[4\]\.um_bot_I\.iw\[5\]
*809 tt_top1\.branch\[0\]\.col_um\[4\]\.um_bot_I\.iw\[6\]
*810 tt_top1\.branch\[0\]\.col_um\[4\]\.um_bot_I\.iw\[7\]
*811 tt_top1\.branch\[0\]\.col_um\[4\]\.um_bot_I\.iw\[8\]
*812 tt_top1\.branch\[0\]\.col_um\[4\]\.um_bot_I\.iw\[9\]
*813 tt_top1\.branch\[0\]\.col_um\[4\]\.um_bot_I\.k_zero
*814 tt_top1\.branch\[0\]\.col_um\[4\]\.um_bot_I\.ow\[0\]
*815 tt_top1\.branch\[0\]\.col_um\[4\]\.um_bot_I\.ow\[10\]
*816 tt_top1\.branch\[0\]\.col_um\[4\]\.um_bot_I\.ow\[11\]
*817 tt_top1\.branch\[0\]\.col_um\[4\]\.um_bot_I\.ow\[12\]